data/TasNetworks - TasNetworks sourcebus_11000.trafo_75586070_75586070_2/Loads.dss
New Load.75588721_nmi_elem_75588721 bus1=3095611.1.2.3 kV=0.4 Vminpu=0.7 Vmaxpu=1.3 model=1 kW=0.0 kvar=0.0 Phases=3
New Load.75588818_nmi_elem_75588818 bus1=3095021.1.2.3 kV=0.4 Vminpu=0.7 Vmaxpu=1.3 model=1 kW=0.0 kvar=0.0 Phases=3
New Load.75588820_nmi_elem_75588820 bus1=3095441.1.2.3 kV=0.4 Vminpu=0.7 Vmaxpu=1.3 model=1 kW=0.0 kvar=0.0 Phases=3
New Load.75589338_nmi_elem_75589338 bus1=3096327.1 kV=0.23094010767585033 Vminpu=0.7 Vmaxpu=1.3 model=1 kW=0.0 kvar=0.0 Phases=1
New Load.75589472_nmi_elem_75589472 bus1=3096353.2 kV=0.23094010767585033 Vminpu=0.7 Vmaxpu=1.3 model=1 kW=0.0 kvar=0.0 Phases=1
New Load.NMI_elem_75586849 bus1=3095245.1.2.3 kV=0.4 Vminpu=0.7 Vmaxpu=1.3 model=1 kW=2.9213426757768466 kvar=0.5932039309962044 Phases=3
New Load.NMI_elem_75586850 bus1=3095074.1.2.3 kV=0.4 Vminpu=0.7 Vmaxpu=1.3 model=1 kW=2.3459121579516315 kvar=0.47635778075868473 Phases=3
New Load.NMI_elem_75586884 bus1=3095611.1.2.3 kV=0.4 Vminpu=0.7 Vmaxpu=1.3 model=1 kW=3.9300272614253147 kvar=0.7980260719601477 Phases=3
New Load.NMI_elem_75586886 bus1=3095261.1.2.3 kV=0.4 Vminpu=0.7 Vmaxpu=1.3 model=1 kW=2.844490590162226 kvar=0.5775984494243698 Phases=3
New Load.NMI_elem_75586887 bus1=3095075.1.2.3 kV=0.4 Vminpu=0.7 Vmaxpu=1.3 model=1 kW=2.107670509316485 kvar=0.42798075067959485 Phases=3
New Load.NMI_elem_75586888 bus1=3095303.1.2.3 kV=0.4 Vminpu=0.7 Vmaxpu=1.3 model=1 kW=2.7551499261165895 kvar=0.5594570538431103 Phases=3
New Load.NMI_elem_75586889 bus1=3095217.1.2.3 kV=0.4 Vminpu=0.7 Vmaxpu=1.3 model=1 kW=1.3708504284707437 kvar=0.27836305193481997 Phases=3
New Load.NMI_elem_75586945 bus1=3095572.3 kV=0.23094010767585033 Vminpu=0.7 Vmaxpu=1.3 model=1 kW=3.4785207545574033 kvar=0.7063437654080118 Phases=1
New Load.NMI_elem_75586946 bus1=3095694.1.2.3 kV=0.4 Vminpu=0.7 Vmaxpu=1.3 model=1 kW=3.0923386120768317 kvar=0.6279261367951369 Phases=3
New Load.NMI_elem_75586947 bus1=3095022.1.2.3 kV=0.4 Vminpu=0.7 Vmaxpu=1.3 model=1 kW=2.86562486789879 kvar=0.5818899475550234 Phases=3
New Load.NMI_elem_75586948 bus1=3096177.1 kV=0.23094010767585033 Vminpu=0.7 Vmaxpu=1.3 model=1 kW=1.6580853503963953 kvar=0.33668859046835553 Phases=1
New Load.NMI_elem_75586949 bus1=3094915.1.2.3 kV=0.4 Vminpu=0.7 Vmaxpu=1.3 model=1 kW=0.3794575391818362 kvar=0.07705213967373883 Phases=3
New Load.NMI_elem_75586950 bus1=3095315.1.2.3 kV=0.4 Vminpu=0.7 Vmaxpu=1.3 model=1 kW=0.8751539265669696 kvar=0.17770758417727847 Phases=3
New Load.NMI_elem_75586951 bus1=3095042.1.2.3 kV=0.4 Vminpu=0.7 Vmaxpu=1.3 model=1 kW=2.2219879637645037 kvar=0.4511938998668983 Phases=3
New Load.NMI_elem_75586952 bus1=3095300.1.2.3 kV=0.4 Vminpu=0.7 Vmaxpu=1.3 model=1 kW=1.3324242940485214 kvar=0.27056029254570124 Phases=3
New Load.NMI_elem_75586953 bus1=3095041.1.2.3 kV=0.4 Vminpu=0.7 Vmaxpu=1.3 model=1 kW=2.2460042634228006 kvar=0.45607061750889705 Phases=3
New Load.NMI_elem_75586954 bus1=3094926.1.2.3 kV=0.4 Vminpu=0.7 Vmaxpu=1.3 model=1 kW=8.846643790328974 kvar=1.7963876391703315 Phases=3
New Load.NMI_elem_75586955 bus1=3094925.1.2.3 kV=0.4 Vminpu=0.7 Vmaxpu=1.3 model=1 kW=2.360321901100645 kvar=0.47928380390260344 Phases=3
New Load.NMI_elem_75586956 bus1=3095634.3 kV=0.23094010767585033 Vminpu=0.7 Vmaxpu=1.3 model=1 kW=2.4784820514443076 kvar=0.5032772457717002 Phases=1
New Load.NMI_elem_75586957 bus1=3095436.1.2.3 kV=0.4 Vminpu=0.7 Vmaxpu=1.3 model=1 kW=2.4083545004172384 kvar=0.4890372391866007 Phases=3
New Load.NMI_elem_75586960 bus1=3096178.1 kV=0.23094010767585033 Vminpu=0.7 Vmaxpu=1.3 model=1 kW=1.9433989243742251 kvar=0.3946239826609945 Phases=1
New Load.NMI_elem_75586961 bus1=3096179.2 kV=0.23094010767585033 Vminpu=0.7 Vmaxpu=1.3 model=1 kW=2.122080252465498 kvar=0.43090677382351344 Phases=1
New Load.NMI_elem_75586962 bus1=3096180.1 kV=0.23094010767585033 Vminpu=0.7 Vmaxpu=1.3 model=1 kW=1.4534664663139165 kvar=0.29513895392614287 Phases=1
New Load.NMI_elem_75586963 bus1=3096181.3 kV=0.23094010767585033 Vminpu=0.7 Vmaxpu=1.3 model=1 kW=2.4756002127523997 kvar=0.5026920634667581 Phases=1
New Load.NMI_elem_75586964 bus1=3095730.3 kV=0.23094010767585033 Vminpu=0.7 Vmaxpu=1.3 model=1 kW=1.2065789351433966 kvar=0.2450063025194211 Phases=1
New Load.NMI_elem_75586965 bus1=3094906.1.2.3 kV=0.4 Vminpu=0.7 Vmaxpu=1.3 model=1 kW=1.3737323587775638 kvar=0.2789482528429634 Phases=3
New Load.NMI_elem_75586966 bus1=3094971.1.2.3 kV=0.4 Vminpu=0.7 Vmaxpu=1.3 model=1 kW=12.350029090853441 kvar=2.507780365979688 Phases=3
New Load.NMI_elem_75586967 bus1=3096182.3 kV=0.23094010767585033 Vminpu=0.7 Vmaxpu=1.3 model=1 kW=2.583193132612868 kvar=0.5245397376673264 Phases=1
New Load.NMI_elem_75586968 bus1=3094923.1.2.3 kV=0.4 Vminpu=0.7 Vmaxpu=1.3 model=1 kW=3.942515839856332 kvar=0.8005619859695726 Phases=3
New Load.NMI_elem_75586969 bus1=3095583.1.2.3 kV=0.4 Vminpu=0.7 Vmaxpu=1.3 model=1 kW=4.913735056671401 kvar=0.997776459318047 Phases=3
New Load.NMI_elem_75586970 bus1=3096183.2 kV=0.23094010767585033 Vminpu=0.7 Vmaxpu=1.3 model=1 kW=2.470796842882845 kvar=0.5017166976145166 Phases=1
New Load.NMI_elem_75586971 bus1=3096184.2 kV=0.23094010767585033 Vminpu=0.7 Vmaxpu=1.3 model=1 kW=1.153743057572161 kvar=0.23427751998638377 Phases=1
New Load.NMI_elem_75586972 bus1=3096185.2 kV=0.23094010767585033 Vminpu=0.7 Vmaxpu=1.3 model=1 kW=1.8655861647856946 kvar=0.37882342791871176 Phases=1
New Load.NMI_elem_75586973 bus1=3096186.1 kV=0.23094010767585033 Vminpu=0.7 Vmaxpu=1.3 model=1 kW=0.6474794168001048 kvar=0.1314763031635154 Phases=1
New Load.NMI_elem_75586974 bus1=3096187.3 kV=0.23094010767585033 Vminpu=0.7 Vmaxpu=1.3 model=1 kW=2.9818638535244566 kvar=0.6054932802896266 Phases=1
New Load.NMI_elem_75586975 bus1=3095495.1.2.3 kV=0.4 Vminpu=0.7 Vmaxpu=1.3 model=1 kW=1.0615204632197042 kvar=0.21555092349698082 Phases=3
New Load.NMI_elem_75586976 bus1=3096188.1 kV=0.23094010767585033 Vminpu=0.7 Vmaxpu=1.3 model=1 kW=0.6417155103790083 kvar=0.1303058920456278 Phases=1
New Load.NMI_elem_75586977 bus1=3094977.1.2.3 kV=0.4 Vminpu=0.7 Vmaxpu=1.3 model=1 kW=5.28646776351722 kvar=1.0734630635446463 Phases=3
New Load.NMI_elem_75586978 bus1=3095096.1.2.3 kV=0.4 Vminpu=0.7 Vmaxpu=1.3 model=1 kW=0.09606520132774375 kvar=0.01950687111514761 Phases=3
New Load.NMI_elem_75586979 bus1=3095108.1.2.3 kV=0.4 Vminpu=0.7 Vmaxpu=1.3 model=1 kW=5.102022758042132 kvar=1.036009907772243 Phases=3
New Load.NMI_elem_75586980 bus1=3094914.1.2.3 kV=0.4 Vminpu=0.7 Vmaxpu=1.3 model=1 kW=2.444859378506552 kvar=0.4964498708380243 Phases=3
New Load.NMI_elem_75586981 bus1=3095021.1.2.3 kV=0.4 Vminpu=0.7 Vmaxpu=1.3 model=1 kW=1.6215804723070821 kvar=0.32927595881693195 Phases=3
New Load.NMI_elem_75586982 bus1=3095328.1.2.3 kV=0.4 Vminpu=0.7 Vmaxpu=1.3 model=1 kW=6.540118898848037 kvar=1.3280277839872205 Phases=3
New Load.NMI_elem_75586983 bus1=3095441.1.2.3 kV=0.4 Vminpu=0.7 Vmaxpu=1.3 model=1 kW=4.036659690541697 kvar=0.8196787101966707 Phases=3
New Load.NMI_elem_75587346 bus1=3096292.2 kV=0.23094010767585033 Vminpu=0.7 Vmaxpu=1.3 model=1 kW=4.666847525500882 kvar=0.9476438079113256 Phases=1
New Load.NMI_elem_75587354 bus1=3096295.1 kV=0.23094010767585033 Vminpu=0.7 Vmaxpu=1.3 model=1 kW=3.8935223833360015 kvar=0.7906134403087242 Phases=1
New Load.NMI_elem_75587501 bus1=3096327.1 kV=0.23094010767585033 Vminpu=0.7 Vmaxpu=1.3 model=1 kW=1.7051572757390783 kvar=0.3462469525819046 Phases=1
New Load.NMI_elem_75587521 bus1=3096331.3 kV=0.23094010767585033 Vminpu=0.7 Vmaxpu=1.3 model=1 kW=0.8415311620143014 kvar=0.17088019064040122 Phases=1
New Load.NMI_elem_75587576 bus1=3096339.3 kV=0.23094010767585033 Vminpu=0.7 Vmaxpu=1.3 model=1 kW=2.2584928418538173 kvar=0.4586065315183219 Phases=1
New Load.NMI_elem_75587635 bus1=3096353.2 kV=0.23094010767585033 Vminpu=0.7 Vmaxpu=1.3 model=1 kW=2.1422538562281512 kvar=0.4350031987837189 Phases=1
New Load.NMI_elem_75587636 bus1=3096354.1 kV=0.23094010767585033 Vminpu=0.7 Vmaxpu=1.3 model=1 kW=2.210460242537223 kvar=0.44885309623432457 Phases=1
New Load.NMI_elem_75587849 bus1=3094922.1.2.3 kV=0.4 Vminpu=0.7 Vmaxpu=1.3 model=1 kW=2.472266141295266 kvar=0.5020150513822145 Phases=3
New Load.NMI_elem_75587858 bus1=3096391.3 kV=0.23094010767585033 Vminpu=0.7 Vmaxpu=1.3 model=1 kW=2.472266141295266 kvar=0.5020150513822145 Phases=1
